/*--------------------------------*- C++ -*----------------------------------*\
  =========                 |
  \\      /  F ield         | OpenFOAM: The Open Source CFD Toolbox
   \\    /   O peration     | Website:  https://openfoam.org
    \\  /    A nd           | Version:  10
     \\/     M anipulation  |
\*---------------------------------------------------------------------------*/
FoamFile
{
    format      ascii;
    class       dictionary;
    location    "system";
    object      fvSchemes;
}
// * * * * * * * * * * * * * * * * * * * * * * * * * * * * * * * * * * * * * //

ddtSchemes //시간통합방법
{
    default         Euler;
}

gradSchemes //기울기계산방법
{
    default         Gauss linear;
}

divSchemes //발산 행 계산 방법
{
    default         none;

    div(phi,U)      Gauss limitedLinearV 1;
    div(phi,Yi_h)   Gauss limitedLinear 1;
    div(phi,K)      Gauss limitedLinear 1;
    div(phid,p)     Gauss limitedLinear 1;
    div(phi,epsilon) Gauss limitedLinear 1;
    div(phi,k) Gauss limitedLinear 1;
    div(((rho*nuEff)*dev2(T(grad(U))))) Gauss linear;
}

laplacianSchemes //라플라스 연산자 계산 방법
{
    default         Gauss linear corrected;
}

interpolationSchemes //보간방법
{
    default         linear;
}

snGradSchemes
{
    default         corrected;
}


// ************************************************************************* //
