/*--------------------------------*- C++ -*----------------------------------*\
  =========                 |
  \\      /  F ield         | OpenFOAM: The Open Source CFD Toolbox
   \\    /   O peration     | Website:  https://openfoam.org
    \\  /    A nd           | Version:  10
     \\/     M anipulation  |
\*---------------------------------------------------------------------------*/
FoamFile
{
    format      ascii;
    class       dictionary;
    location    "system";
    object      fvSolution;
}
// * * * * * * * * * * * * * * * * * * * * * * * * * * * * * * * * * * * * * //

solvers
{
    "rho.*"
    {
        solver          diagonal;
    }

    p
    {
        solver          GAMG;
        smoother        DIC;
        tolerance       1e-6;
        relTol          0;
    }

    pFinal
    {
        $p;
        relTol          0;
    }

    "(U|h|k|epsilon)"
    {
        solver          smoothSolver;
        smoother        symGaussSeidel;
        tolerance       1e-6;
        relTol          0;
        minIter         1;
    }

    "(U|h|k|epsilon)Final"
    {
        $U;
    }

    "Yi.*"
    {
        solver          smoothSolver;
        smoother        symGaussSeidel;
        tolerance       1e-6;
        relTol          0;
        minIter         1;
    }

    "G.*"
    {
        solver          smoothSolver;
        smoother        symGaussSeidel;
        tolerance       1e-6;
        relTol          0.01;
        minIter         1;
	maxIter		100;
    }

    GFinal
    {
        $G;
        relTol          0.1;
    }
}


PIMPLE
{
    //momentumPredictor   yes;
    nOuterCorrectors    1;
    nCorrectors         1;//1
    nNonOrthogonalCorrectors 3;

    //maxDeltaT           1e-4;
    maxCo               0.8;//0.8;//0.25;
    alphaTemp           0.05;
    alphaY              0.05;
    Yref
    {
        H2                  0.1;
        O2                  0.1;
        CH4                 0.1;
    }
    rDeltaTSmoothingCoeff   0.025;
    rDeltaTDampingCoeff     1;
}

relaxationFactors
{
    equations
    {
         U              0.7;// 0.3; //0.7;
         p              0.7;// 0.3; //0.8;
	 k		0.7;//0.3; //0.5; //No estaba
    }
}



// ************************************************************************* //
