/*--------------------------------*- C++ -*----------------------------------*\
  =========                 |
  \\      /  F ield         | OpenFOAM: The Open Source CFD Toolbox
   \\    /   O peration     | Website:  https://openfoam.org
    \\  /    A nd           | Version:  10
     \\/     M anipulation  |
\*---------------------------------------------------------------------------*/
FoamFile
{
    format      ascii;
    class       volScalarField;
    location    "0";
    object      CO2;
}
// * * * * * * * * * * * * * * * * * * * * * * * * * * * * * * * * * * * * * //

dimensions      [0 0 0 0 0 0 0];

internalField   uniform 0;

boundaryField
{
    l1
    {
        type            fixedValue;
        value           uniform 0;
    }
    l2
    {
        type            fixedValue;
        value           uniform 0;
    }
    outlet
    {
        type            zeroGradient;
    }
    w1
    {
        type            zeroGradient;
    }
    w2
    {
        type            zeroGradient;
    }
    w3
    {
        type            zeroGradient;
    }
    w4
    {
        type            zeroGradient;
    }
    w5
    {
        type            zeroGradient;
    }

}


// ************************************************************************* //
