/*--------------------------------*- C++ -*----------------------------------*\
  =========                 |
  \\      /  F ield         | OpenFOAM: The Open Source CFD Toolbox
   \\    /   O peration     | Website:  https://openfoam.org
    \\  /    A nd           | Version:  10
     \\/     M anipulation  |
\*---------------------------------------------------------------------------*/
FoamFile
{
    format      binary;
    class       volScalarField;
    location    "0";
    object      Qdot;
}
// * * * * * * * * * * * * * * * * * * * * * * * * * * * * * * * * * * * * * //

dimensions      [1 -1 -3 0 0 0 0];

internalField   uniform 0;

boundaryField
{
    w1
    {
        type            calculated;
        value           uniform 0;
    }
    w2
    {
        type            calculated;
        value           uniform 0;
    }
    w3
    {
        type            calculated;
        value           uniform 0;
    }
    w4
    {
        type            calculated;
        value           uniform 0;
    }
    w5
    {
        type            calculated;
        value           uniform 0;
    }
    l1
    {
        type            calculated;
        value           uniform 0;
    }
    l2
    {
        type            calculated;
        value           uniform 0;
    }
    outlet
    {
        type            calculated;
        value           uniform 0;
    }
}


// ************************************************************************* //
